Version 4
SHEET 1 880 680
WIRE 48 128 -32 128
WIRE 192 144 160 144
WIRE 320 144 272 144
WIRE 432 144 320 144
WIRE 48 160 32 160
WIRE -32 176 -32 128
WIRE 144 192 128 192
WIRE 320 192 320 144
WIRE 432 192 432 144
WIRE 64 288 64 192
WIRE 144 288 144 192
WIRE -32 368 -32 256
WIRE 32 368 32 160
WIRE 32 368 -32 368
WIRE 64 368 64 288
WIRE 64 368 32 368
WIRE 96 368 64 368
WIRE 320 368 320 256
WIRE 320 368 96 368
WIRE 432 368 432 272
WIRE 432 368 320 368
WIRE 96 384 96 368
FLAG 96 384 0
SYMBOL voltage -32 160 R0
WINDOW 123 0 0 Left 0
WINDOW 39 0 0 Left 0
SYMATTR InstName V1
SYMATTR Value 5
SYMBOL ind 288 128 R90
WINDOW 0 5 56 VBottom 2
WINDOW 3 32 56 VTop 2
SYMATTR InstName L1
SYMATTR Value 1µ
SYMBOL cap 304 192 R0
SYMATTR InstName C1
SYMATTR Value 1µ
SYMBOL res 416 176 R0
SYMATTR InstName R1
SYMATTR Value 1k
SYMBOL SPDT 96 144 M0
SYMATTR InstName X1
SYMBOL voltage 160 288 R90
WINDOW 0 -32 56 VBottom 2
WINDOW 3 32 56 VTop 2
WINDOW 123 0 0 Left 0
WINDOW 39 0 0 Left 0
SYMATTR InstName V2
SYMATTR Value PULSE(0 1 0 0 0 0.5n 1n 0)
TEXT -66 408 Left 2 !.tran 100u
